Command line parsed.
Prompt for the name of the MODPATH simulation file.
